Circuit: * A:\Stuff for School\AA Eng 4\2EI4\Proj1 Draft2.asc

c1: Increased Cpar to 5e-11
WARNING: Node N005 is floating.

.OP point found by inspection.

Date: Thu Oct 26 10:12:57 2023
Total elapsed time: 0.041 seconds.

tnom = 27
temp = 27
method = modified trap
totiter = 3477
traniter = 3477
tranpoints = 1338
accept = 1004
rejected = 334
matrix size = 12
fillins = 4
solver = Normal
Avg thread counts: 1.3/1.7/1.7/1.3
Matrix Compiler1: off  [0.2]/0.2/0.2
Matrix Compiler2: off  [0.1]/0.1/0.1

